[General]
network = d6g.simulations.TsnTestNetwork
sim-time-limit = 60s
description = "Traffic shaping using time-aware shapers"

*.switch.bridging.typename = "BridgingLayerWithPairwiseDelay"
*.switch.bridging.pairwiseDelayLayer.egress.delayConfig = xmldoc("delays.xml")

**.displayGateSchedules = true
**.gateFilter = "**.eth[1].**"
**.gateScheduleVisualizer.height = 16
**.gateScheduleVisualizer.placementHint = "top"

# client applications
*.client.numApps = 1
*.client.app[0].typename = "UdpSourceApp"
*.client.app[0].io.destAddress = "server"
*.client.app[0].io.destPort = 1000
*.client.app[0].source.packetLength = 1000B - 54B # 54B = 8B (UDP) + 20B (IP) + 14B (ETH MAC) + 4B (ETH FCS) + 8B (ETH PHY)
*.client.app[0].source.productionInterval = 10ms


# server applications
*.server.numApps = 1
*.server.app[0].typename = "UdpSinkApp"
*.server.app[0].io.localPort = 1000

# enable outgoing streams
*.client.hasOutgoingStreams = true

# client stream identification
*.client.bridging.streamIdentifier.identifier.mapping = [{stream: "best effort", packetFilter: expr(udp.destPort == 1000)},
                                                         {stream: "video", packetFilter: expr(udp.destPort == 1001)}]

# client stream encoding
*.client.bridging.streamCoder.encoder.mapping = [{stream: "best effort", pcp: 0},
                                                 {stream: "video", pcp: 4}]

# enable egress traffic shaping
*.switch.hasEgressTrafficShaping = true

# disable forwarding IEEE 802.1Q C-Tag
*.switch.bridging.directionReverser.reverser.excludeEncapsulationProtocols = ["ieee8021qctag"]

# time-aware traffic shaping
*.switch.eth[*].macLayer.queue.numTrafficClasses = 2

[Fifo]
*.histogram.histogramConfig = xmldoc("fifo.xml")

[Deadline]
*.histogram.histogramConfig = xmldoc("deadline.xml")