[General]
network = d6g.simulations.edgecloud.EdgeCloudNetwork
sim-time-limit = 60s
description = "EdgeCloud scenario (no delays)"

**.displayGateSchedules = true
**.gateFilter = "**.ethg[1].**"
**.gateScheduleVisualizer.height = 16
**.gateScheduleVisualizer.placementHint = "top"

# client applications
*.talker.numApps = 1
*.talker.app[0].typename = "UdpSourceApp"
*.talker.app[0].io.destAddress = "cloud"
*.talker.app[0].io.destPort = 1001
*.talker.app[0].source.packetLength = 1000B - 54B # 54B = 8B (UDP) + 20B (IP) + 14B (ETH MAC) + 4B (ETH FCS) + 8B (ETH PHY)
*.talker.app[0].source.productionInterval = 10ms

# server applications
*.cloud.numApps = 1
*.cloud.app[0].typename = "UdpEdgeCloudApp"
*.cloud.app[0].destAddress = "receiver"
*.cloud.app[0].destPort = 1002
*.cloud.app[0].localPort = 1001


*.receiver.numApps = 1
*.receiver.app[0].typename = "UdpSinkApp"
*.receiver.app[0].io.localPort = 1002

# enable outgoing streams
*.talker.hasOutgoingStreams = true
*.cloud.hasOutgoingStreams = true

# client stream identification
*.talker.bridging.streamIdentifier.identifier.mapping = [{stream: "BE", packetFilter: expr(udp.destPort == 1000)},
                                                         {stream: "VI", packetFilter: expr(udp.destPort == 1001)}]
*.cloud.bridging.streamIdentifier.identifier.mapping = [{stream: "BE", packetFilter: expr(udp.destPort == 1000)},
                                                         {stream: "VI", packetFilter: expr(udp.destPort == 1002)}]


[fiveG]
description = "EdgeCloud only 5G delay"
*.histogramUplink.histogramConfig = xmldoc("../../../deterministic6g_data_internal/5g-kth/s1_wall.xml")
*.detcom.bridging.pairwiseDelayLayer.egress.delayConfig = xmldoc("delays_wireless.xml")

[Fifo]
description = "EdgeCloud scenario with only delay by FiFo scheduling"
*.histogramCloud.histogramConfig = xmldoc("../../../deterministic6g_data_internal/edgecloud/fifo.xml")
*.cloud.app[0].delay = rngProvider("histogramCloud")

[Deadline]
description = "EdgeCloud scneario with only delay by Deadline scheduling"
*.histogramCloud.histogramConfig = xmldoc("../../../deterministic6g_data_internal/edgecloud/deadline.xml")
*.cloud.app[0].delay = rngProvider("histogramCloud")

[Fifo_fiveG]
description = "EdgeCloud scneario with delay by FiFo scheduling and 5G"
extends = Fifo, fiveG


[Deadline_fiveG]
description = "EdgeCloud scneario with delay by Deadline scheduling and 5G"
extends = Deadline, fiveG

